MatpowerDataProcesssed/d_case300.m
% 01/10/12 File data originated from Matpower data file
% 

Bus.con = [ ...
      1      115    1.028   0.1038    1    1;
      2      115    1.035   0.1351    1    1;
      3      230   0.9971   0.1159    1    1;
      4      345    1.031  0.08221    1    1;
      5      115    1.019  0.08168    1    1;
      6      115    1.031    0.122    1    1;
      7      230   0.9934    0.108    1    1;
      8      115    1.015  0.04189    1    1;
      9      115    1.003  0.04974    1    1;
     10      230     1.02  0.02356    1    1;
     11      115    1.006  0.04294    1    1;
     12      230   0.9974  0.09093    1    1;
     13      115   0.9977 -0.009599    1    1;
     14      115   0.9991 -0.08395    1    1;
     15      115    1.034  -0.1499    1    1;
     16      345    1.032 -0.04625    1    1;
     17      115    1.065  -0.2286    1    1;
     19      230    0.982  0.01885    1    1;
     20      115    1.001 -0.04294    1    1;
     21      230   0.9752  0.02827    1    1;
     22      115   0.9963 -0.03438    1    1;
     23      115     1.05  0.06877    1    1;
     24      230    1.006   0.1051    1    1;
     25      115    1.023  0.02513    1    1;
     26      115   0.9986 -0.03019    1    1;
     27      115    0.975 -0.08552    1    1;
     33      115    1.024  -0.2098    1    1;
     34      345    1.041  -0.1386    1    1;
     35      115   0.9757  -0.4489    1    1;
     36      230    1.001  -0.3943    1    1;
     37      115     1.02   -0.196    1    1;
     38      115     1.02  -0.2192    1    1;
     39      345    1.054  -0.1014    1    1;
     40      115    1.022  -0.2231    1    1;
     41      115    1.029  -0.1824    1    1;
     42      345    1.045  -0.1299    1    1;
     43      115    1.001   -0.293    1    1;
     44      115    1.009  -0.3049    1    1;
     45      230    1.022  -0.2573    1    1;
     46      345    1.034  -0.2051    1    1;
     47      115   0.9777  -0.4044    1    1;
     48      115    1.002  -0.2808    1    1;
     49      115    1.048 -0.05149    1    1;
     51      115    1.025  -0.1422    1    1;
     52      115   0.9979   -0.207    1    1;
     53      115   0.9959  -0.3072    1    1;
     54      115    1.005  -0.2836    1    1;
     55      115    1.015  -0.2131    1    1;
     57      115    1.034  -0.1396    1    1;
     58      115   0.9918  -0.1045    1    1;
     59      115   0.9789 -0.09233    1    1;
     60      230    1.025  -0.1669    1    1;
     61      115   0.9906 -0.06056    1    1;
     62      230    1.016  -0.0192    1    1;
     63      115   0.9583  -0.3075    1    1;
     64      230    0.948  -0.2264    1    1;
     69      115    0.963  -0.4479    1    1;
     70      115   0.9513  -0.6137    1    1;
     71      115   0.9793  -0.5215    1    1;
     72      115   0.9696  -0.4796    1    1;
     73      115   0.9775  -0.4498    1    1;
     74      230   0.9964   -0.384    1    1;
     76      115   0.9632  -0.4632    1    1;
     77      115   0.9837  -0.4353    1    1;
     78      115     0.99  -0.4198    1    1;
     79      115    0.982  -0.4358    1    1;
     80      115   0.9872  -0.4358    1    1;
     81      345    1.034  -0.3297    1    1;
     84      115    1.025  -0.2995    1    1;
     85      230   0.9872  -0.3086    1    1;
     86      230   0.9909  -0.2477    1    1;
     87      230   0.9921  -0.1356    1    1;
     88      230    1.015  -0.3658    1    1;
     89      115    1.032  -0.1943    1    1;
     90      115    1.027   -0.196    1    1;
     91      115    1.052  -0.1641    1    1;
     92      115    1.052  -0.1082    1    1;
     94      115    0.993  -0.1644    1    1;
     97      115    1.018  -0.2311    1    1;
     98      115        1  -0.2548    1    1;
     99      115   0.9894  -0.3538    1    1;
    100      115    1.006  -0.2522    1    1;
    102      115    1.001  -0.2658    1    1;
    103      115    1.029  -0.2105    1    1;
    104      115   0.9958  -0.3025    1    1;
    105      115    1.022  -0.2258    1    1;
    107      115     1.01  -0.2798    1    1;
    108      115     0.99  -0.3536    1    1;
    109      115   0.9749  -0.4548    1    1;
    110      115    0.973  -0.4314    1    1;
    112      115   0.9725  -0.5007    1    1;
    113      115     0.97   -0.443    1    1;
    114      115   0.9747   -0.499    1    1;
    115      115   0.9603  -0.2368    1    2;
    116      115    1.025  -0.2215    1    2;
    117      115   0.9348 -0.08238    1    2;
    118      115   0.9298 -0.07191    1    2;
    119      115    1.044  0.09023    1    2;
    120      115   0.9584  -0.1531    1    2;
    121      115   0.9871  -0.2206    1    2;
    122      115   0.9728  -0.2506    1    2;
    123      115    1.001  -0.3079    1    2;
    124      115    1.023  -0.2354    1    2;
    125      115     1.01  -0.3217    1    2;
    126      115   0.9978  -0.2244    1    2;
    127      230        1  -0.1836    1    2;
    128      230    1.002 -0.08343    1    2;
    129      230    1.003 -0.07679    1    2;
    130      230    1.019  0.09704    1    2;
    131      230   0.9861   0.1058    1    2;
    132      230    1.004  0.05306    1    2;
    133      230    1.002 -0.09529    1    2;
    134      230    1.022  -0.1403    1    2;
    135      230    1.019   -0.118    1    2;
    136      230    1.048  0.02688    1    2;
    137      230    1.047 -0.02531    1    2;
    138      230    1.055  -0.1108    1    2;
    139      115    1.012 -0.06231    1    2;
    140      230    1.043 -0.06004    1    2;
    141      230    1.051 0.0008727    1    2;
    142      230    1.016 -0.04835    1    2;
    143      230    1.044  0.07034    1    2;
    144      230    1.016 -0.01222    1    2;
    145      230    1.008 -0.002793    1    2;
    146      230    1.053   0.0754    1    2;
    147      230    1.053   0.1459    1    2;
    148      230    1.058 0.004887    1    2;
    149      230    1.073  0.09128    1    2;
    150      230   0.9869   0.1107    1    2;
    151      230    1.005  0.07208    1    2;
    152      230    1.054   0.1613    1    2;
    153      230    1.044   0.1826    1    2;
    154      115   0.9663 -0.03142    1    2;
    155      230    1.018   0.1178    1    2;
    156      115    0.963  0.08988    1    2;
    157      230   0.9845  -0.2082    1    2;
    158      230   0.9987   -0.199    1    2;
    159      230   0.9867  -0.1714    1    2;
    160      230   0.9998   -0.219    1    2;
    161      230    1.036   0.1545    1    2;
    162      230   0.9918   0.3229    1    2;
    163      230    1.041  0.05079    1    2;
    164      230   0.9839   0.1686    1    2;
    165      230        1   0.4592    1    2;
    166      230   0.9973   0.5274    1    2;
    167      230   0.9715  -0.1206    1    2;
    168      230    1.002 -0.08378    1    2;
    169      230   0.9879  -0.1166    1    2;
    170      115    0.929 0.001571    1    2;
    171      115   0.9829  -0.1735    1    2;
    172      115    1.024  -0.1086    1    2;
    173      115   0.9837  -0.2225    1    2;
    174      115    1.062 -0.04695    1    2;
    175      115    0.973  -0.1258    1    2;
    176      115    1.052  0.08151    1    2;
    177      115    1.008  0.01082    1    2;
    178      115   0.9397  -0.1145    1    2;
    179      115   0.9699  -0.1635    1    2;
    180      115   0.9793 -0.05393    1    2;
    181      230    1.052 -0.02321    1    2;
    182      230    1.045 -0.07313    1    2;
    183      115   0.9717   0.1243    1    2;
    184      230    1.039  -0.1196    1    2;
    185      230    1.052 -0.07557    1    2;
    186      230    1.065  0.03787    1    2;
    187      230    1.065  0.02443    1    2;
    188      230    1.053 -0.01257    1    2;
    189       66   0.9975   -0.451    1    3;
    190      345    1.055  -0.3599    1    3;
    191      230    1.044   0.2138    1    3;
    192      230   0.9374  -0.1951    1    3;
    193       66   0.9897  -0.4554    1    3;
    194      345    1.049  -0.3353    1    3;
    195      345    1.036  -0.3629    1    3;
    196      115   0.9695  -0.4419    1    3;
    197      115   0.9907   -0.414    1    3;
    198      115    1.015  -0.3592    1    3;
    199      115   0.9528  -0.4547    1    3;
    200      115    0.955  -0.4526    1    3;
    201       66   0.9692  -0.4798    1    1;
    202       66   0.9908  -0.4421    1    3;
    203      115    1.003  -0.3901    1    3;
    204       66   0.9718  -0.4485    1    3;
    205       66   0.9838   -0.455    1    3;
    206       66   0.9992  -0.4784    1    3;
    207       66    1.014  -0.4789    1    1;
    208       66   0.9929  -0.4587    1    3;
    209       66   0.9999  -0.4479    1    3;
    210      115   0.9788  -0.4227    1    3;
    211      115    1.002  -0.4068    1    3;
    212      138    1.013  -0.3929    1    3;
    213     16.5     1.01  -0.2037    1    3;
    214      138   0.9919   -0.306    1    3;
    215      138   0.9866  -0.3531    1    3;
    216      138   0.9751  -0.3932    1    3;
    217      138    1.022  -0.3875    1    3;
    218      138    1.008   -0.395    1    3;
    219      345    1.055  -0.3691    1    3;
    220      138    1.008  -0.3793    1    3;
    221      138        1  -0.3925    1    3;
...
   ];

SW.con = [ ...
   7049      100     13.8    1.051        0      0.1        0     1.06     0.94        0 1 1  1;
   ];

PV.con = [ ...
   8      100      115        0    1.015      0.1     -0.1     1.06     0.94 1  1;
  10      100      230        0     1.02      0.2     -0.2     1.06     0.94 1  1;
  20      100      115        0    1.001      0.2     -0.2     1.06     0.94 1  1;
  63      100      115        0   0.9583     0.25    -0.25     1.06     0.94 1  1;
  76      100      115        0   0.9632     0.35     0.12     1.06     0.94 1  1;
  84      100      115     3.75    1.025      2.4     -2.4     1.06     0.94 1  1;
  91      100      115     1.55    1.052     0.96    -0.11     1.06     0.94 1  1;
  92      100      115      2.9    1.052     1.53    -1.53     1.06     0.94 1  1;
  98      100      115     0.68        1     0.56     -0.3     1.06     0.94 1  1;
 108      100      115     1.17     0.99     0.77    -0.24     1.06     0.94 1  1;
 119      100      115     19.3    1.044       15       -5     1.06     0.94 1  1;
 124      100      115      2.4    1.023      1.2     -0.6     1.06     0.94 1  1;
 125      100      115        0     1.01        2    -0.25     1.06     0.94 1  1;
 138      100      230        0    1.055      3.5    -1.25     1.06     0.94 1  1;
 141      100      230     2.81    1.051     0.75     -0.5     1.06     0.94 1  1;
 143      100      230     6.96    1.044        3       -1     1.06     0.94 1  1;
 146      100      230     0.84    1.053     0.35    -0.15     1.06     0.94 1  1;
 147      100      230     2.17    1.053        1     -0.5     1.06     0.94 1  1;
 149      100      230     1.03    1.073      0.5    -0.25     1.06     0.94 1  1;
 152      100      230     3.72    1.054     1.75     -0.5     1.06     0.94 1  1;
 153      100      230     2.16    1.044      0.9     -0.5     1.06     0.94 1  1;
 156      100      115        0    0.963     0.15     -0.1     1.06     0.94 1  1;
 170      100      115     2.05    0.929      0.9     -0.4     1.06     0.94 1  1;
 171      100      115        0   0.9829      1.5     -0.5     1.06     0.94 1  1;
 176      100      115     2.28    1.052      0.9    -0.45     1.06     0.94 1  1;
 177      100      115     0.84    1.008     0.35    -0.15     1.06     0.94 1  1;
 185      100      230        2    1.052      0.8     -0.5     1.06     0.94 1  1;
 186      100      230       12    1.065        4       -1     1.06     0.94 1  1;
 187      100      230       12    1.065        4       -1     1.06     0.94 1  1;
 190      100      345     4.75    1.055        3       -3     1.06     0.94 1  1;
 191      100      230    19.73    1.044       10      -10     1.06     0.94 1  1;
 198      100      115     4.24    1.015      2.6     -2.6     1.06     0.94 1  1;
 213      100     16.5     2.72     1.01      1.5     -1.5     1.06     0.94 1  1;
 220      100      138        1    1.008      0.6     -0.6     1.06     0.94 1  1;
 221      100      138      4.5        1      3.2     -3.2     1.06     0.94 1  1;
 222      100       20      2.5     1.05        3       -3     1.06     0.94 1  1;
 227      100       27     3.03        1        3       -3     1.06     0.94 1  1;
 230      100       20     3.45     1.04      2.5     -2.5     1.06     0.94 1  1;
 233      100       66        3        1        5       -5     1.06     0.94 1  1;
 236      100       20        6    1.016        3       -3     1.06     0.94 1  1;
 238      100      138      2.5     1.01        2       -2     1.06     0.94 1  1;
 239      100      138      5.5        1        4       -4     1.06     0.94 1  1;
 241      100       20    5.754     1.05        6       -6     1.06     0.94 1  1;
 242      100      138      1.7    0.993        1      0.4     1.06     0.94 1  1;
 243      100       66     0.84     1.01      0.8      0.4     1.06     0.94 1  1;
7001      100     13.8     4.67    1.051      2.1     -2.1     1.06     0.94 1  1;
7002      100     13.8     6.23    1.051      2.8     -2.8     1.06     0.94 1  1;
7003      100     13.8     12.1    1.032      4.2     -4.2     1.06     0.94 1  1;
7011      100     13.8     2.34    1.014        1       -1     1.06     0.94 1  1;
7012      100     13.8     3.72    1.051     2.24    -2.24     1.06     0.94 1  1;
7017      100     13.8      3.3    1.051      3.5        0     1.06     0.94 1  1;
7023      100     13.8     1.85    1.051      1.2        0     1.06     0.94 1  1;
7024      100     13.8      4.1    1.029     2.24    -2.24     1.06     0.94 1  1;
7039      100       20        5     1.05        2       -2     1.06     0.94 1  1;
7044      100     13.8     0.37    1.014     0.42        0     1.06     0.94 1  1;
7055      100     13.8     0.45   0.9967     0.25        0     1.06     0.94 1  1;
7057      100     13.8     1.65    1.021      0.9     -0.9     1.06     0.94 1  1;
7061      100     13.8        4    1.014      1.5     -1.5     1.06     0.94 1  1;
7062      100     13.8        4    1.002      1.5        0     1.06     0.94 1  1;
7071      100     13.8     1.16   0.9893     0.87        0     1.06     0.94 1  1;
7130      100     13.8    12.92    1.051        6       -1     1.06     0.94 1  1;
7139      100     13.8        7    1.051     3.25    -1.25     1.06     0.94 1  1;
7166      100     13.8     5.53    1.014        3       -2     1.06     0.94 1  1;
9002      100      6.6        0   0.9945     0.02    -0.02     1.06     0.94 1  1;
9051      100     13.8        0        1   0.1735  -0.1735     1.06     0.94 1  1;
9053      100     13.8        0        1   0.1283   -0.128     1.06     0.94 1  1;
9054      100     13.8      0.5        1     0.38    -0.38     1.06     0.94 1  1;
9055      100     13.8     0.08        1     0.06    -0.06     1.06     0.94 1  1;
   ];

PQ.con = [ ...
   1 100      115      0.9     0.49     1.06     0.94 0 1;
   2 100      115     0.56     0.15     1.06     0.94 0 1;
   3 100      230      0.2        0     1.06     0.94 0 1;
   5 100      115     3.53      1.3     1.06     0.94 0 1;
   6 100      115      1.2     0.41     1.06     0.94 0 1;
   8 100      115     0.63     0.14     1.06     0.94 0 1;
   9 100      115     0.96     0.43     1.06     0.94 0 1;
  10 100      230     1.53     0.33     1.06     0.94 0 1;
  11 100      115     0.83     0.21     1.06     0.94 0 1;
  13 100      115     0.58      0.1     1.06     0.94 0 1;
  14 100      115      1.6      0.6     1.06     0.94 0 1;
  15 100      115    1.267     0.23     1.06     0.94 0 1;
  17 100      115     5.61      2.2     1.06     0.94 0 1;
  20 100      115     6.05      1.2     1.06     0.94 0 1;
  21 100      230     0.77     0.01     1.06     0.94 0 1;
  22 100      115     0.81     0.23     1.06     0.94 0 1;
  23 100      115     0.21     0.07     1.06     0.94 0 1;
  25 100      115     0.45     0.12     1.06     0.94 0 1;
  26 100      115     0.28     0.09     1.06     0.94 0 1;
  27 100      115     0.69     0.13     1.06     0.94 0 1;
  33 100      115     0.55     0.06     1.06     0.94 0 1;
  37 100      115     0.85     0.32     1.06     0.94 0 1;
  38 100      115     1.55     0.18     1.06     0.94 0 1;
  40 100      115     0.46    -0.21     1.06     0.94 0 1;
  41 100      115     0.86        0     1.06     0.94 0 1;
  43 100      115     0.39     0.09     1.06     0.94 0 1;
  44 100      115     1.95     0.29     1.06     0.94 0 1;
  47 100      115     0.58    0.118     1.06     0.94 0 1;
  48 100      115     0.41     0.19     1.06     0.94 0 1;
  49 100      115     0.92     0.26     1.06     0.94 0 1;
  51 100      115    -0.05     0.05     1.06     0.94 0 1;
  52 100      115     0.61     0.28     1.06     0.94 0 1;
  53 100      115     0.69     0.03     1.06     0.94 0 1;
  54 100      115      0.1     0.01     1.06     0.94 0 1;
  55 100      115     0.22      0.1     1.06     0.94 0 1;
  57 100      115     0.98      0.2     1.06     0.94 0 1;
  58 100      115     0.14     0.01     1.06     0.94 0 1;
  59 100      115     2.18     1.06     1.06     0.94 0 1;
  61 100      115     2.27      1.1     1.06     0.94 0 1;
  63 100      115      0.7      0.3     1.06     0.94 0 1;
  70 100      115     0.56      0.2     1.06     0.94 0 1;
  71 100      115     1.16     0.38     1.06     0.94 0 1;
  72 100      115     0.57     0.19     1.06     0.94 0 1;
  73 100      115     2.24     0.71     1.06     0.94 0 1;
  76 100      115     2.08     1.07     1.06     0.94 0 1;
  77 100      115     0.74     0.28     1.06     0.94 0 1;
  79 100      115     0.48     0.14     1.06     0.94 0 1;
  80 100      115     0.28     0.07     1.06     0.94 0 1;
  84 100      115     0.37     0.13     1.06     0.94 0 1;
  89 100      115    0.442        0     1.06     0.94 0 1;
  90 100      115     0.66        0     1.06     0.94 0 1;
  91 100      115    0.174        0     1.06     0.94 0 1;
  92 100      115    0.158        0     1.06     0.94 0 1;
  94 100      115    0.603        0     1.06     0.94 0 1;
  97 100      115    0.399        0     1.06     0.94 0 1;
  98 100      115    0.667        0     1.06     0.94 0 1;
  99 100      115    0.835        0     1.06     0.94 0 1;
 102 100      115    0.778        0     1.06     0.94 0 1;
 103 100      115     0.32        0     1.06     0.94 0 1;
 104 100      115    0.086        0     1.06     0.94 0 1;
 105 100      115    0.496        0     1.06     0.94 0 1;
 107 100      115    0.046        0     1.06     0.94 0 1;
 108 100      115    1.121        0     1.06     0.94 0 1;
 109 100      115    0.307        0     1.06     0.94 0 1;
 110 100      115     0.63        0     1.06     0.94 0 1;
 112 100      115    0.196        0     1.06     0.94 0 1;
 113 100      115    0.262        0     1.06     0.94 0 1;
 114 100      115    0.182        0     1.06     0.94 0 1;
 118 100      115    0.141      6.5     1.06     0.94 0 1;
 120 100      115     7.77     2.15     1.06     0.94 0 1;
 121 100      115     5.35     0.55     1.06     0.94 0 1;
 122 100      115    2.291    0.118     1.06     0.94 0 1;
 123 100      115     0.78    0.014     1.06     0.94 0 1;
 124 100      115    2.764    0.593     1.06     0.94 0 1;
 125 100      115    5.148    0.827     1.06     0.94 0 1;
 126 100      115    0.579    0.051     1.06     0.94 0 1;
 127 100      230    3.808     0.37     1.06     0.94 0 1;
 135 100      230    1.692    0.416     1.06     0.94 0 1;
 136 100      230    0.552    0.182     1.06     0.94 0 1;
 137 100      230    2.736    0.998     1.06     0.94 0 1;
 138 100      230    10.19    1.352     1.06     0.94 0 1;
 139 100      115     5.95    0.833     1.06     0.94 0 1;
 140 100      230    3.877    1.147     1.06     0.94 0 1;
 141 100      230     1.45     0.58     1.06     0.94 0 1;
 142 100      230    0.565    0.245     1.06     0.94 0 1;
 143 100      230    0.895    0.355     1.06     0.94 0 1;
 145 100      230     0.24     0.14     1.06     0.94 0 1;
 148 100      230     0.63     0.25     1.06     0.94 0 1;
 152 100      230     0.17     0.09     1.06     0.94 0 1;
 154 100      115      0.7     0.05     1.06     0.94 0 1;
 155 100      230        2      0.5     1.06     0.94 0 1;
 156 100      115     0.75      0.5     1.06     0.94 0 1;
 157 100      230    1.235   -0.243     1.06     0.94 0 1;
 159 100      230     0.33    0.165     1.06     0.94 0 1;
 161 100      230     0.35     0.15     1.06     0.94 0 1;
 162 100      230     0.85     0.24     1.06     0.94 0 1;
 163 100      230        0    0.004     1.06     0.94 0 1;
 167 100      230    2.999    0.957     1.06     0.94 0 1;
 170 100      115    4.818     2.05     1.06     0.94 0 1;
 171 100      115    7.636    2.911     1.06     0.94 0 1;
 172 100      115    0.265        0     1.06     0.94 0 1;
 173 100      115    1.635     0.43     1.06     0.94 0 1;
 175 100      115     1.76     0.83     1.06     0.94 0 1;
 176 100      115     0.05     0.04     1.06     0.94 0 1;
 177 100      115     0.28     0.12     1.06     0.94 0 1;
 178 100      115    4.274    1.736     1.06     0.94 0 1;
 179 100      115     0.74     0.29     1.06     0.94 0 1;
 180 100      115    0.695    0.493     1.06     0.94 0 1;
 181 100      230    0.734        0     1.06     0.94 0 1;
 182 100      230    2.407     0.89     1.06     0.94 0 1;
 183 100      115      0.4     0.04     1.06     0.94 0 1;
 184 100      230    1.368    0.166     1.06     0.94 0 1;
 186 100      230    0.598    0.243     1.06     0.94 0 1;
 187 100      230    0.598    0.243     1.06     0.94 0 1;
 188 100      230    1.826    0.436     1.06     0.94 0 1;
 189 100       66     0.07     0.02     1.06     0.94 0 1;
 191 100      230     4.89     0.53     1.06     0.94 0 1;
 192 100      230        8     0.72     1.06     0.94 0 1;
 196 100      115      0.1     0.03     1.06     0.94 0 1;
 197 100      115     0.43     0.14     1.06     0.94 0 1;
 198 100      115     0.64     0.21     1.06     0.94 0 1;
 199 100      115     0.35     0.12     1.06     0.94 0 1;
 200 100      115     0.27     0.12     1.06     0.94 0 1;
 201 100       66     0.41     0.14     1.06     0.94 0 1;
 202 100       66     0.38     0.13     1.06     0.94 0 1;
 203 100      115     0.42     0.14     1.06     0.94 0 1;
 204 100       66     0.72     0.24     1.06     0.94 0 1;
 205 100       66        0    -0.05     1.06     0.94 0 1;
 206 100       66     0.12     0.02     1.06     0.94 0 1;
 207 100       66    -0.21   -0.142     1.06     0.94 0 1;
 208 100       66     0.07     0.02     1.06     0.94 0 1;
 209 100       66     0.38     0.13     1.06     0.94 0 1;
 211 100      115     0.96     0.07     1.06     0.94 0 1;
 214 100      138     0.22     0.16     1.06     0.94 0 1;
 215 100      138     0.47     0.26     1.06     0.94 0 1;
 216 100      138     1.76     1.05     1.06     0.94 0 1;
 217 100      138        1     0.75     1.06     0.94 0 1;
 218 100      138     1.31     0.96     1.06     0.94 0 1;
 220 100      138     2.85        1     1.06     0.94 0 1;
 221 100      138     1.71      0.7     1.06     0.94 0 1;
 222 100       20     3.28     1.88     1.06     0.94 0 1;
 223 100      138     4.28     2.32     1.06     0.94 0 1;
 224 100      230     1.73     0.99     1.06     0.94 0 1;
 225 100      230      4.1      0.4     1.06     0.94 0 1;
 227 100       27     5.38     3.69     1.06     0.94 0 1;
 228 100      138     2.23     1.48     1.06     0.94 0 1;
 229 100      138     0.96     0.46     1.06     0.94 0 1;
 231 100      345     1.59     1.07     1.06     0.94 0 1;
 232 100      138     4.48     1.43     1.06     0.94 0 1;
 233 100       66     4.04     2.12     1.06     0.94 0 1;
 234 100      138     5.72     2.44     1.06     0.94 0 1;
 235 100      138     2.69     1.57     1.06     0.94 0 1;
 238 100      138     2.55     1.49     1.06     0.94 0 1;
 243 100       66     0.08     0.03     1.06     0.94 0 1;
 245 100       66     0.61      0.3     1.06     0.94 0 1;
 246 100       66     0.77     0.33     1.06     0.94 0 1;
 247 100       66     0.61      0.3     1.06     0.94 0 1;
 248 100       66     0.29     0.14     1.06     0.94 0 1;
 249 100       66     0.29     0.14     1.06     0.94 0 1;
 250 100       66    -0.23    -0.17     1.06     0.94 0 1;
 281 100      230   -0.331   -0.294     1.06     0.94 0 1;
 319 100      230    1.158    -0.24     1.06     0.94 0 1;
 320 100      115    0.024   -0.126     1.06     0.94 0 1;
 322 100      115    0.024   -0.039     1.06     0.94 0 1;
 323 100      230   -0.149    0.265     1.06     0.94 0 1;
 324 100      115    0.247   -0.012     1.06     0.94 0 1;
 526 100      115    1.453   -0.349     1.06     0.94 0 1;
 528 100      115    0.281   -0.205     1.06     0.94 0 1;
 531 100      115     0.14    0.025     1.06     0.94 0 1;
 552 100      115   -0.111   -0.014     1.06     0.94 0 1;
 562 100      230    0.505    0.174     1.06     0.94 0 1;
 609 100      115    0.296    0.006     1.06     0.94 0 1;
 664 100      345   -1.137    0.767     1.06     0.94 0 1;
1190 100       86    1.003   0.2917     1.06     0.94 0 1;
1200 100       86       -1   0.3417     1.06     0.94 0 1;
9002 100      6.6    0.042        0     1.06     0.94 0 1;
9003 100      6.6   0.0271   0.0094     1.06     0.94 0 1;
9004 100      6.6   0.0086   0.0028     1.06     0.94 0 1;
9021 100      6.6   0.0475   0.0156     1.06     0.94 0 1;
9022 100      0.6   0.0153   0.0053     1.06     0.94 0 1;
9024 100      0.6   0.0135   0.0047     1.06     0.94 0 1;
9025 100      0.6   0.0045   0.0016     1.06     0.94 0 1;
9026 100      0.6   0.0045   0.0016     1.06     0.94 0 1;
9031 100      0.6   0.0184   0.0064     1.06     0.94 0 1;
9032 100      0.6   0.0139   0.0048     1.06     0.94 0 1;
9033 100      0.6   0.0189   0.0065     1.06     0.94 0 1;
9034 100      0.6   0.0155   0.0054     1.06     0.94 0 1;
9035 100      0.6   0.0166   0.0058     1.06     0.94 0 1;
9036 100      2.3   0.0303     0.01     1.06     0.94 0 1;
9037 100      0.6   0.0186   0.0064     1.06     0.94 0 1;
9038 100      0.6   0.0258   0.0089     1.06     0.94 0 1;
9041 100      0.6   0.0101   0.0035     1.06     0.94 0 1;
9042 100      0.6   0.0081   0.0028     1.06     0.94 0 1;
9043 100      2.3    0.016   0.0052     1.06     0.94 0 1;
9051 100     13.8   0.3581        0     1.06     0.94 0 1;
9052 100     13.8      0.3     0.23     1.06     0.94 0 1;
9053 100     13.8   0.2648        0     1.06     0.94 0 1;
9071 100      0.6   0.0102   0.0035     1.06     0.94 0 1;
9072 100      0.6   0.0102   0.0035     1.06     0.94 0 1;
9121 100      6.6    0.038   0.0125     1.06     0.94 0 1;
...
   ];

Shunt.con = [ ...
 117 100      115 60        0     3.25 1;
 120 100      115 60        0     0.55 1;
 154 100      115 60        0    0.345 1;
 164 100      230 60        0    -2.12 1;
 166 100      230 60        0    -1.03 1;
 173 100      115 60        0     0.53 1;
 179 100      115 60        0     0.45 1;
 190 100      345 60        0     -1.5 1;
 231 100      345 60        0       -3 1;
 238 100      138 60        0     -1.5 1;
 240 100      230 60        0     -1.4 1;
 248 100       66 60        0    0.456 1;
9003 100      6.6 60   0.0014    0.024 1;
9022 100      0.6 60   0.0008        0 1;
9024 100      0.6 60   0.0007        0 1;
9025 100      0.6 60   0.0002        0 1;
9026 100      0.6 60   0.0002        0 1;
9031 100      0.6 60    0.001        0 1;
9032 100      0.6 60   0.0007        0 1;
9033 100      0.6 60    0.001        0 1;
9034 100      0.6 60   0.0008   0.0172 1;
9035 100      0.6 60   0.0009        0 1;
9037 100      0.6 60    0.001        0 1;
9038 100      0.6 60   0.0014        0 1;
9041 100      0.6 60   0.0005        0 1;
9042 100      0.6 60   0.0004        0 1;
9071 100      0.6 60   0.0005        0 1;
9072 100      0.6 60   0.0005        0 1;
9533 100      2.3 60    0.001        0 1;
   ];

Line.con = [ ...
  37 9001 100      115 60 0         1    6e-05  0.00046        0    1.008        0       99        0     0.75  1;
9001 9005 100      115 60 0         0   0.0008  0.00348        0        0        0       99        0        0  1;
9001 9006 100      115 60 0     17.42  0.02439   0.4368        0   0.9668        0       99        0        0  1;
9001 9012 100      115 60 0     17.42  0.03624    0.649        0   0.9796        0       99        0        0  1;
9005 9051 100      115 60 0     8.333  0.01578   0.3749        0    1.044        0       99        0        0  1;
9005 9052 100      115 60 0     8.333  0.01578   0.3749        0   0.9391        0       99        0        0  1;
9005 9053 100      115 60 0     8.333  0.01602   0.3805        0    1.044        0       99        0        0  1;
9005 9054 100      115 60 0     8.333        0    0.152        0    1.044        0       99        0        0  1;
9005 9055 100      115 60 0     8.333        0      0.8        0    1.044        0       99        0        0  1;
9006 9007 100      6.6 60 0         0  0.05558   0.2467        0        0        0       99        0        0  1;
9006 9003 100      6.6 60 0         0   0.1112   0.4933        0        0        0       99        0        0  1;
9006 9003 100      6.6 60 0         0   0.1112   0.4933        0        0        0       99        0        0  1;
9012 9002 100      6.6 60 0         0  0.07622   0.4329        0        0        0       99        0        0  1;
9012 9002 100      6.6 60 0         0  0.07622   0.4329        0        0        0       99        0        0  1;
9002 9021 100      6.6 60 0         0   0.0537  0.07026        0        0        0       99        0        0  1;
9021 9023 100      6.6 60 0         0    1.107   0.9528        0        0        0       99        0        0  1;
9021 9022 100      6.6 60 0        11   0.4436    2.815        0        1        0       99        0        0  1;
9002 9024 100      6.6 60 0        11   0.5075     3.22        0        1        0       99        0        0  1;
9023 9025 100      6.6 60 0        11   0.6669    3.944        0        1        0       99        0        0  1;
9023 9026 100      6.6 60 0        11   0.6113    3.615        0        1        0       99        0        0  1;
9007 9071 100      6.6 60 0        11   0.4412    2.967        0        1        0       99        0        0  1;
9007 9072 100      6.6 60 0        11   0.3079    2.057        0        1        0       99        0        0  1;
9007 9003 100      6.6 60 0         0   0.0558   0.2467        0        0        0       99        0        0  1;
9003 9031 100      6.6 60 0        11   0.7363    4.672        0        1        0       99        0        0  1;
9003 9032 100      6.6 60 0        11   0.7698    4.885        0        1        0       99        0        0  1;
9003 9033 100      6.6 60 0        11   0.7573    4.806        0        1        0       99        0        0  1;
9003 9044 100      6.6 60 0         0  0.07378  0.06352        0        0        0       99        0        0  1;
9044 9004 100      6.6 60 0         0  0.03832  0.02894        0        0        0       99        0        0  1;
9004 9041 100      6.6 60 0        11   0.3661    2.456        0        1        0       99        0        0  1;
9004 9042 100      6.6 60 0        11    1.059    5.454        0        1        0       99        0        0  1;
9004 9043 100      6.6 60 0      2.87   0.1567    1.699        0        1        0       99        0        0  1;
9003 9034 100      6.6 60 0        11   0.1301    1.391        0        1        0       99        0        0  1;
9003 9035 100      6.6 60 0        11   0.5448    3.457        0        1        0       99        0        0  1;
9003 9036 100      6.6 60 0      2.87   0.1543    1.673        0        1        0       99        0        0  1;
9003 9037 100      6.6 60 0        11   0.3849    2.571        0        1        0       99        0        0  1;
9003 9038 100      6.6 60 0        11   0.4412    2.967        0        1        0       99        0        0  1;
9012 9121 100      6.6 60 0         0   0.2355   0.9904        0        0        0       99        0        0  1;
9053 9533 100     13.8 60 0         6        0     0.75        0   0.9583        0       99        0        0  1;
   1    5 100      115 60 0         0    0.001    0.006        0        0        0       99        0        0  1;
   2    6 100      115 60 0         0    0.001    0.009        0        0        0       99        0        0  1;
   2    8 100      115 60 0         0    0.006    0.027    0.054        0        0       99        0        0  1;
   3    7 100      230 60 0         0        0    0.003        0        0        0       99        0        0  1;
   3   19 100      230 60 0         0    0.008    0.069    0.139        0        0       99        0        0  1;
   3  150 100      230 60 0         0    0.001    0.007        0        0        0       99        0        0  1;
   4   16 100      345 60 0         0    0.002    0.019    1.127        0        0       99        0        0  1;
   5    9 100      115 60 0         0    0.006    0.029    0.018        0        0       99        0        0  1;
   7   12 100      230 60 0         0    0.001    0.009     0.07        0        0       99        0        0  1;
   7  131 100      230 60 0         0    0.001    0.007    0.014        0        0       99        0        0  1;
   8   11 100      115 60 0         0    0.013   0.0595    0.033        0        0       99        0        0  1;
   8   14 100      115 60 0         0    0.013    0.042    0.081        0        0       99        0        0  1;
   9   11 100      115 60 0         0    0.006    0.027    0.013        0        0       99        0        0  1;
  11   13 100      115 60 0         0    0.008    0.034    0.018        0        0       99        0        0  1;
  12   21 100      230 60 0         0    0.002    0.015    0.118        0        0       99        0        0  1;
  13   20 100      115 60 0         0    0.006    0.034    0.016        0        0       99        0        0  1;
  14   15 100      115 60 0         0    0.014    0.042    0.097        0        0       99        0        0  1;
  15   37 100      115 60 0         0    0.065    0.248    0.121        0        0       99        0        0  1;
  15   89 100      115 60 0         0    0.099    0.248    0.035        0        0       99        0        0  1;
  15   90 100      115 60 0         0    0.096    0.363    0.048        0        0       99        0        0  1;
  16   42 100      345 60 0         0    0.002    0.022     1.28        0        0       99        0        0  1;
  19   21 100      230 60 0         0    0.002    0.018    0.036        0        0       99        0        0  1;
  19   87 100      230 60 0         0    0.013     0.08    0.151        0        0       99        0        0  1;
  20   22 100      115 60 0         0    0.016    0.033    0.015        0        0       99        0        0  1;
  20   27 100      115 60 0         0    0.069    0.186    0.098        0        0       99        0        0  1;
  21   24 100      230 60 0         0    0.004    0.034     0.28        0        0       99        0        0  1;
  22   23 100      115 60 0         0    0.052    0.111     0.05        0        0       99        0        0  1;
  23   25 100      115 60 0         0    0.019    0.039    0.018        0        0       99        0        0  1;
  24  319 100      230 60 0         0    0.007    0.068    0.134        0        0       99        0        0  1;
  25   26 100      115 60 0         0    0.036    0.071    0.034        0        0       99        0        0  1;
  26   27 100      115 60 0         0    0.045     0.12    0.065        0        0       99        0        0  1;
  26  320 100      115 60 0         0    0.043     0.13    0.014        0        0       99        0        0  1;
  33   34 100      115 60 0         0        0    0.063        0        0        0       99        0        0  1;
  33   38 100      115 60 0         0   0.0025    0.012    0.013        0        0       99        0        0  1;
  33   40 100      115 60 0         0    0.006    0.029     0.02        0        0       99        0        0  1;
  33   41 100      115 60 0         0    0.007    0.043    0.026        0        0       99        0        0  1;
  34   42 100      345 60 0         0    0.001    0.008    0.042        0        0       99        0        0  1;
  35   72 100      115 60 0         0    0.012     0.06    0.008        0        0       99        0        0  1;
  35   76 100      115 60 0         0    0.006    0.014    0.002        0        0       99        0        0  1;
  35   77 100      115 60 0         0     0.01    0.029    0.003        0        0       99        0        0  1;
  36   88 100      230 60 0         0    0.004    0.027    0.043        0        0       99        0        0  1;
  37   38 100      115 60 0         0    0.008    0.047    0.008        0        0       99        0        0  1;
  37   40 100      115 60 0         0    0.022    0.064    0.007        0        0       99        0        0  1;
  37   41 100      115 60 0         0     0.01    0.036     0.02        0        0       99        0        0  1;
  37   49 100      115 60 0         0    0.017    0.081    0.048        0        0       99        0        0  1;
  37   89 100      115 60 0         0    0.102    0.254    0.033        0        0       99        0        0  1;
  37   90 100      115 60 0         0    0.047    0.127    0.016        0        0       99        0        0  1;
  38   41 100      115 60 0         0    0.008    0.037     0.02        0        0       99        0        0  1;
  38   43 100      115 60 0         0    0.032    0.087     0.04        0        0       99        0        0  1;
  39   42 100      345 60 0         0   0.0006   0.0064    0.404        0        0       99        0        0  1;
  40   48 100      115 60 0         0    0.026    0.154    0.022        0        0       99        0        0  1;
  41   42 100      115 60 0         0        0    0.029        0        0        0       99        0        0  1;
  41   49 100      115 60 0         0    0.065    0.191     0.02        0        0       99        0        0  1;
  41   51 100      115 60 0         0    0.031    0.089    0.036        0        0       99        0        0  1;
  42   46 100      345 60 0         0    0.002    0.014    0.806        0        0       99        0        0  1;
  43   44 100      115 60 0         0    0.026    0.072    0.035        0        0       99        0        0  1;
  43   48 100      115 60 0         0    0.095    0.262    0.032        0        0       99        0        0  1;
  43   53 100      115 60 0         0    0.013    0.039    0.016        0        0       99        0        0  1;
  44   47 100      115 60 0         0    0.027    0.084    0.039        0        0       99        0        0  1;
  44   54 100      115 60 0         0    0.028    0.084    0.037        0        0       99        0        0  1;
  45   60 100      230 60 0         0    0.007    0.041    0.312        0        0       99        0        0  1;
  45   74 100      230 60 0         0    0.009    0.054    0.411        0        0       99        0        0  1;
  46   81 100      345 60 0         0    0.005    0.042     0.69        0        0       99        0        0  1;
  47   73 100      115 60 0         0    0.052    0.145    0.073        0        0       99        0        0  1;
  47  113 100      115 60 0         0    0.043    0.118    0.013        0        0       99        0        0  1;
  48  107 100      115 60 0         0    0.025    0.062    0.007        0        0       99        0        0  1;
  49   51 100      115 60 0         0    0.031    0.094    0.043        0        0       99        0        0  1;
  51   52 100      115 60 0         0    0.037    0.109    0.049        0        0       99        0        0  1;
  52   55 100      115 60 0         0    0.027     0.08    0.036        0        0       99        0        0  1;
  53   54 100      115 60 0         0    0.025    0.073    0.035        0        0       99        0        0  1;
  54   55 100      115 60 0         0    0.035    0.103    0.047        0        0       99        0        0  1;
  55   57 100      115 60 0         0    0.065    0.169    0.082        0        0       99        0        0  1;
  57   58 100      115 60 0         0    0.046     0.08    0.036        0        0       99        0        0  1;
  57   63 100      115 60 0         0    0.159    0.537    0.071        0        0       99        0        0  1;
  58   59 100      115 60 0         0    0.009    0.026    0.005        0        0       99        0        0  1;
  59   61 100      115 60 0         0    0.002    0.013    0.015        0        0       99        0        0  1;
  60   62 100      230 60 0         0    0.009    0.065    0.485        0        0       99        0        0  1;
  62   64 100      230 60 0         0    0.016    0.105    0.203        0        0       99        0        0  1;
  62  144 100      230 60 0         0    0.001    0.007    0.013        0        0       99        0        0  1;
  63  526 100      115 60 0         0   0.0265    0.172    0.026        0        0       99        0        0  1;
  69  211 100      115 60 0         0    0.051    0.232    0.028        0        0       99        0        0  1;
  69   79 100      115 60 0         0    0.051    0.157    0.023        0        0       99        0        0  1;
  70   71 100      115 60 0         0    0.032      0.1    0.062        0        0       99        0        0  1;
  70  528 100      115 60 0         0     0.02   0.1234    0.028        0        0       99        0        0  1;
  71   72 100      115 60 0         0    0.036    0.131    0.068        0        0       99        0        0  1;
  71   73 100      115 60 0         0    0.034    0.099    0.047        0        0       99        0        0  1;
  72   77 100      115 60 0         0    0.018    0.087    0.011        0        0       99        0        0  1;
  72  531 100      115 60 0         0   0.0256    0.193        0        0        0       99        0        0  1;
  73   76 100      115 60 0         0    0.021    0.057     0.03        0        0       99        0        0  1;
  73   79 100      115 60 0         0    0.018    0.052    0.018        0        0       99        0        0  1;
  74   88 100      230 60 0         0    0.004    0.027     0.05        0        0       99        0        0  1;
  74  562 100      230 60 0         0   0.0286   0.2013    0.379        0        0       99        0        0  1;
  76   77 100      115 60 0         0    0.016    0.043    0.004        0        0       99        0        0  1;
  77   78 100      115 60 0         0    0.001    0.006    0.007        0        0       99        0        0  1;
  77   80 100      115 60 0         0    0.014     0.07    0.038        0        0       99        0        0  1;
  77  552 100      115 60 0         0   0.0891   0.2676    0.029        0        0       99        0        0  1;
  77  609 100      115 60 0         0   0.0782   0.2127    0.022        0        0       99        0        0  1;
  78   79 100      115 60 0         0    0.006    0.022    0.011        0        0       99        0        0  1;
  78   84 100      115 60 0         0        0    0.036        0        0        0       99        0        0  1;
  79  211 100      115 60 0         0    0.099    0.375    0.051        0        0       99        0        0  1;
  80  211 100      115 60 0         0    0.022    0.107    0.058        0        0       99        0        0  1;
  81  194 100      345 60 0         0   0.0035    0.033     0.53        0        0       99        0        0  1;
  81  195 100      345 60 0         0   0.0035    0.033     0.53        0        0       99        0        0  1;
  85   86 100      230 60 0         0    0.008    0.064    0.128        0        0       99        0        0  1;
  86   87 100      230 60 0         0    0.012    0.093    0.183        0        0       99        0        0  1;
  86  323 100      230 60 0         0    0.006    0.048    0.092        0        0       99        0        0  1;
  89   91 100      115 60 0         0    0.047    0.119    0.014        0        0       99        0        0  1;
  90   92 100      115 60 0         0    0.032    0.174    0.024        0        0       99        0        0  1;
  91   94 100      115 60 0         0      0.1    0.253    0.031        0        0       99        0        0  1;
  91   97 100      115 60 0         0    0.022    0.077    0.039        0        0       99        0        0  1;
  92  103 100      115 60 0         0    0.019    0.144    0.017        0        0       99        0        0  1;
  92  105 100      115 60 0         0    0.017    0.092    0.012        0        0       99        0        0  1;
  94   97 100      115 60 0         0    0.278    0.427    0.043        0        0       99        0        0  1;
  97  100 100      115 60 0         0    0.022    0.053    0.007        0        0       99        0        0  1;
  97  102 100      115 60 0         0    0.038    0.092    0.012        0        0       99        0        0  1;
  97  103 100      115 60 0         0    0.048    0.122    0.015        0        0       99        0        0  1;
  98  100 100      115 60 0         0    0.024    0.064    0.007        0        0       99        0        0  1;
  98  102 100      115 60 0         0    0.034    0.121    0.015        0        0       99        0        0  1;
  99  107 100      115 60 0         0    0.053    0.135    0.017        0        0       99        0        0  1;
  99  108 100      115 60 0         0    0.002    0.004    0.002        0        0       99        0        0  1;
  99  109 100      115 60 0         0    0.045    0.354    0.044        0        0       99        0        0  1;
  99  110 100      115 60 0         0     0.05    0.174    0.022        0        0       99        0        0  1;
 100  102 100      115 60 0         0    0.016    0.038    0.004        0        0       99        0        0  1;
 102  104 100      115 60 0         0    0.043    0.064    0.027        0        0       99        0        0  1;
 103  105 100      115 60 0         0    0.019    0.062    0.008        0        0       99        0        0  1;
 104  108 100      115 60 0         0    0.076     0.13    0.044        0        0       99        0        0  1;
 104  322 100      115 60 0         0    0.044    0.124    0.015        0        0       99        0        0  1;
 105  107 100      115 60 0         0    0.012    0.088    0.011        0        0       99        0        0  1;
 105  110 100      115 60 0         0    0.157      0.4    0.047        0        0       99        0        0  1;
 108  324 100      115 60 0         0    0.074    0.208    0.026        0        0       99        0        0  1;
 109  110 100      115 60 0         0     0.07    0.184    0.021        0        0       99        0        0  1;
 109  113 100      115 60 0         0      0.1    0.274    0.031        0        0       99        0        0  1;
 109  114 100      115 60 0         0    0.109    0.393    0.036        0        0       99        0        0  1;
 110  112 100      115 60 0         0    0.142    0.404     0.05        0        0       99        0        0  1;
 112  114 100      115 60 0         0    0.017    0.042    0.006        0        0       99        0        0  1;
 115  122 100      115 60 0         0   0.0036   0.0199    0.004        0        0       99        0        0  1;
 116  120 100      115 60 0         0    0.002   0.1049    0.001        0        0       99        0        0  1;
 117  118 100      115 60 0         0   0.0001   0.0018    0.017        0        0       99        0        0  1;
 118  119 100      115 60 0         0        0   0.0271        0        0        0       99        0        0  1;
 118 1201 100      115 60 0         0        0   0.6163        0        0        0       99        0        0  1;
1201  120 100      115 60 0         0        0  -0.3697        0        0        0       99        0        0  1;
 118  121 100      115 60 0         0   0.0022   0.2915        0        0        0       99        0        0  1;
 119  120 100      115 60 0         0        0   0.0339        0        0        0       99        0        0  1;
 119  121 100      115 60 0         0        0   0.0582        0        0        0       99        0        0  1;
 122  123 100      115 60 0         0   0.0808   0.2344    0.029        0        0       99        0        0  1;
 122  125 100      115 60 0         0   0.0965   0.3669    0.054        0        0       99        0        0  1;
 123  124 100      115 60 0         0    0.036   0.1076    0.117        0        0       99        0        0  1;
 123  125 100      115 60 0         0   0.0476   0.1414    0.149        0        0       99        0        0  1;
 125  126 100      115 60 0         0   0.0006   0.0197        0        0        0       99        0        0  1;
 126  127 100      115 60 0         0   0.0059   0.0405     0.25        0        0       99        0        0  1;
 126  129 100      115 60 0         0   0.0115   0.1106    0.185        0        0       99        0        0  1;
 126  132 100      115 60 0         0   0.0198   0.1688    0.321        0        0       99        0        0  1;
 126  157 100      115 60 0         0    0.005     0.05     0.33        0        0       99        0        0  1;
 126  158 100      115 60 0         0   0.0077   0.0538    0.335        0        0       99        0        0  1;
 126  169 100      115 60 0         0   0.0165   0.1157    0.171        0        0       99        0        0  1;
 127  128 100      230 60 0         0   0.0059   0.0577    0.095        0        0       99        0        0  1;
 127  134 100      230 60 0         0   0.0049   0.0336    0.208        0        0       99        0        0  1;
 127  168 100      230 60 0         0   0.0059   0.0577    0.095        0        0       99        0        0  1;
 128  130 100      230 60 0         0   0.0078   0.0773    0.126        0        0       99        0        0  1;
 128  133 100      230 60 0         0   0.0026   0.0193     0.03        0        0       99        0        0  1;
 129  130 100      230 60 0         0   0.0076   0.0752    0.122        0        0       99        0        0  1;
 129  133 100      230 60 0         0   0.0021   0.0186     0.03        0        0       99        0        0  1;
...
   ];

Supply.con = [ ...
   8       100        0        1        0        0        0       40     0.01        0        0        0  1 0 1;
  10       100        0        1        0        0        0       40     0.01        0        0        0  1 0 1;
  20       100        0        1        0        0        0       40     0.01        0        0        0  1 0 1;
  63       100        0        1        0        0        0       40     0.01        0        0        0  1 0 1;
  76       100        0        1        0        0        0       40     0.01        0        0        0  1 0 1;
  84       100        0     4.75        0        0        0       20  0.02667        0        0        0  1 0 1;
  91       100        0     2.55        0        0        0       20  0.06452        0        0        0  1 0 1;
  92       100        0      3.9        0        0        0       20  0.03448        0        0        0  1 0 1;
  98       100        0     1.68        0        0        0       20   0.1471        0        0        0  1 0 1;
 108       100        0     2.17        0        0        0       20  0.08547        0        0        0  1 0 1;
 119       100        0     20.3        0        0        0       20 0.005181        0        0        0  1 0 1;
 124       100        0      3.4        0        0        0       20  0.04167        0        0        0  1 0 1;
 125       100        0        1        0        0        0       40     0.01        0        0        0  1 0 1;
 138       100        0        1        0        0        0       40     0.01        0        0        0  1 0 1;
 141       100        0     3.81        0        0        0       20  0.03559        0        0        0  1 0 1;
 143       100        0     7.96        0        0        0       20  0.01437        0        0        0  1 0 1;
 146       100        0     1.84        0        0        0       20    0.119        0        0        0  1 0 1;
 147       100        0     3.17        0        0        0       20  0.04608        0        0        0  1 0 1;
 149       100        0     2.03        0        0        0       20  0.09709        0        0        0  1 0 1;
 152       100        0     4.72        0        0        0       20  0.02688        0        0        0  1 0 1;
 153       100        0     3.16        0        0        0       20   0.0463        0        0        0  1 0 1;
 156       100        0        1        0        0        0       40     0.01        0        0        0  1 0 1;
 170       100        0     3.05        0        0        0       20  0.04878        0        0        0  1 0 1;
 171       100        0        1        0        0        0       40     0.01        0        0        0  1 0 1;
 176       100        0     3.28        0        0        0       20  0.04386        0        0        0  1 0 1;
 177       100        0     1.84        0        0        0       20    0.119        0        0        0  1 0 1;
 185       100        0        3        0        0        0       20     0.05        0        0        0  1 0 1;
 186       100        0       13        0        0        0       20 0.008333        0        0        0  1 0 1;
 187       100        0       13        0        0        0       20 0.008333        0        0        0  1 0 1;
 190       100        0     5.75        0        0        0       20  0.02105        0        0        0  1 0 1;
 191       100        0    20.73        0        0        0       20 0.005068        0        0        0  1 0 1;
 198       100        0     5.24        0        0        0       20  0.02358        0        0        0  1 0 1;
 213       100        0     3.72        0        0        0       20  0.03676        0        0        0  1 0 1;
 220       100        0        2        0        0        0       20      0.1        0        0        0  1 0 1;
 221       100        0      5.5        0        0        0       20  0.02222        0        0        0  1 0 1;
 222       100        0      3.5        0        0        0       20     0.04        0        0        0  1 0 1;
 227       100        0     4.03        0        0        0       20    0.033        0        0        0  1 0 1;
 230       100        0     4.45        0        0        0       20  0.02899        0        0        0  1 0 1;
 233       100        0        4        0        0        0       20  0.03333        0        0        0  1 0 1;
 236       100        0        7        0        0        0       20  0.01667        0        0        0  1 0 1;
 238       100        0      3.5        0        0        0       20     0.04        0        0        0  1 0 1;
 239       100        0      6.5        0        0        0       20  0.01818        0        0        0  1 0 1;
 241       100        0    6.754        0        0        0       20  0.01738        0        0        0  1 0 1;
 242       100        0      2.7        0        0        0       20  0.05882        0        0        0  1 0 1;
 243       100        0     1.84        0        0        0       20    0.119        0        0        0  1 0 1;
7001       100        0     5.67        0        0        0       20  0.02141        0        0        0  1 0 1;
7002       100        0     7.23        0        0        0       20  0.01605        0        0        0  1 0 1;
7003       100        0     13.1        0        0        0       20 0.008264        0        0        0  1 0 1;
7011       100        0     3.34        0        0        0       20  0.04274        0        0        0  1 0 1;
7012       100        0     4.72        0        0        0       20  0.02688        0        0        0  1 0 1;
7017       100        0      4.3        0        0        0       20   0.0303        0        0        0  1 0 1;
7023       100        0     2.85        0        0        0       20  0.05405        0        0        0  1 0 1;
7024       100        0      5.1        0        0        0       20  0.02439        0        0        0  1 0 1;
7039       100        0        6        0        0        0       20     0.02        0        0        0  1 0 1;
7044       100        0     1.37        0        0        0       20   0.2703        0        0        0  1 0 1;
7049       100        0    23.99        0        0        0       40     0.01        0        0        0  1 0 1;
7055       100        0     1.45        0        0        0       20   0.2222        0        0        0  1 0 1;
7057       100        0     2.65        0        0        0       20  0.06061        0        0        0  1 0 1;
7061       100        0        5        0        0        0       20    0.025        0        0        0  1 0 1;
7062       100        0        5        0        0        0       20    0.025        0        0        0  1 0 1;
7071       100        0     2.16        0        0        0       20  0.08621        0        0        0  1 0 1;
7130       100        0    13.92        0        0        0       20  0.00774        0        0        0  1 0 1;
7139       100        0        8        0        0        0       20  0.01429        0        0        0  1 0 1;
7166       100        0     6.53        0        0        0       20  0.01808        0        0        0  1 0 1;
9002       100        0        1        0        0        0       40     0.01        0        0        0  1 0 1;
9051       100        0        1        0        0        0       40     0.01        0        0        0  1 0 1;
9053       100        0        1        0        0        0       40     0.01        0        0        0  1 0 1;
9054       100        0      1.5        0        0        0       20      0.2        0        0        0  1 0 1;
9055       100        0     1.08        0        0        0       20     1.25        0        0        0  1 0 1;
   ];

Bus.names = {...
      'Bus 1'; 'Bus 2'; 'Bus 3'; 'Bus 4'; 'Bus 5'; 
      'Bus 6'; 'Bus 7'; 'Bus 8'; 'Bus 9'; 'Bus 10'; 
      'Bus 11'; 'Bus 12'; 'Bus 13'; 'Bus 14'; 'Bus 15'; 
      'Bus 16'; 'Bus 17'; 'Bus 19'; 'Bus 20'; 'Bus 21'; 
      'Bus 22'; 'Bus 23'; 'Bus 24'; 'Bus 25'; 'Bus 26'; 
      'Bus 27'; 'Bus 33'; 'Bus 34'; 'Bus 35'; 'Bus 36'; 
      'Bus 37'; 'Bus 38'; 'Bus 39'; 'Bus 40'; 'Bus 41'; 
      'Bus 42'; 'Bus 43'; 'Bus 44'; 'Bus 45'; 'Bus 46'; 
      'Bus 47'; 'Bus 48'; 'Bus 49'; 'Bus 51'; 'Bus 52'; 
      'Bus 53'; 'Bus 54'; 'Bus 55'; 'Bus 57'; 'Bus 58'; 
      'Bus 59'; 'Bus 60'; 'Bus 61'; 'Bus 62'; 'Bus 63'; 
      'Bus 64'; 'Bus 69'; 'Bus 70'; 'Bus 71'; 'Bus 72'; 
      'Bus 73'; 'Bus 74'; 'Bus 76'; 'Bus 77'; 'Bus 78'; 
      'Bus 79'; 'Bus 80'; 'Bus 81'; 'Bus 84'; 'Bus 85'; 
      'Bus 86'; 'Bus 87'; 'Bus 88'; 'Bus 89'; 'Bus 90'; 
      'Bus 91'; 'Bus 92'; 'Bus 94'; 'Bus 97'; 'Bus 98'; 
      'Bus 99'; 'Bus 100'; 'Bus 102'; 'Bus 103'; 'Bus 104'; 
      'Bus 105'; 'Bus 107'; 'Bus 108'; 'Bus 109'; 'Bus 110'; 
      'Bus 112'; 'Bus 113'; 'Bus 114'; 'Bus 115'; 'Bus 116'; 
      'Bus 117'; 'Bus 118'; 'Bus 119'; 'Bus 120'; 'Bus 121'; 
...